.gitignore
Makefile
README.md
release_steps.txt
requirements.txt
requirements_optional.txt
setup.py
.github/workflows/tests.yml
examples/Read_FASTOut.py
examples/TurbSim2Mann.py
weio/_NEWFILE_TEMPLATE.py
weio/__init__.py
weio/bladed_out_file.py
weio/bmodes_out_file.py
weio/cactus_element_file.py
weio/cactus_file.py
weio/csv_file.py
weio/excel_file.py
weio/fast_input_deck.py
weio/fast_input_file.py
weio/fast_input_file_graph.py
weio/fast_linearization_file.py
weio/fast_output_file.py
weio/fast_summary_file.py
weio/fast_wind_file.py
weio/file.py
weio/file_formats.py
weio/flex_blade_file.py
weio/flex_doc_file.py
weio/flex_out_file.py
weio/flex_profile_file.py
weio/flex_wavekin_file.py
weio/hawc2_ae_file.py
weio/hawc2_dat_file.py
weio/hawc2_htc_file.py
weio/hawc2_pc_file.py
weio/hawc2_st_file.py
weio/hawcstab2_cmb_file.py
weio/hawcstab2_ind_file.py
weio/hawcstab2_pwr_file.py
weio/mannbox_file.py
weio/mini_yaml.py
weio/netcdf_file.py
weio/parquet_file.py
weio/raawmat_file.py
weio/rosco_performance_file.py
weio/tdms_file.py
weio/tecplot_file.py
weio/turbsim_file.py
weio/turbsim_ts_file.py
weio/user.py
weio/vtk_file.py
weio.egg-info/PKG-INFO
weio.egg-info/SOURCES.txt
weio.egg-info/dependency_links.txt
weio.egg-info/not-zip-safe
weio.egg-info/requires.txt
weio.egg-info/top_level.txt
weio/tests/DEBUG.py
weio/tests/__init__.py
weio/tests/helpers_for_test.py
weio/tests/test_all.py
weio/tests/test_bladed.py
weio/tests/test_csv.py
weio/tests/test_fast_input.py
weio/tests/test_fast_input_deck.py
weio/tests/test_fast_linearization.py
weio/tests/test_fast_output.py
weio/tests/test_fast_summary.py
weio/tests/test_flex.py
weio/tests/test_hawc.py
weio/tests/test_parquet.py
weio/tests/test_tecplot.py
weio/tests/test_turbsim.py
weio/tests/test_vtk.py
weio/tests/example_files/BHAWC_out_ascii.dat
weio/tests/example_files/BHAWC_out_ascii.sel
weio/tests/example_files/BHAWC_out_ascii1.dat
weio/tests/example_files/BHAWC_out_ascii1.sel
weio/tests/example_files/BModesOut.out
weio/tests/example_files/Bladed_out_ascii.$04
weio/tests/example_files/Bladed_out_ascii.$41
weio/tests/example_files/Bladed_out_ascii.%04
weio/tests/example_files/Bladed_out_ascii.%41
weio/tests/example_files/Bladed_out_binary.$04
weio/tests/example_files/Bladed_out_binary.$41
weio/tests/example_files/Bladed_out_binary.%04
weio/tests/example_files/Bladed_out_binary.%41
weio/tests/example_files/Bladed_out_binary_case2.$04
weio/tests/example_files/Bladed_out_binary_case2.$06
weio/tests/example_files/Bladed_out_binary_case2.$09
weio/tests/example_files/Bladed_out_binary_case2.$12
weio/tests/example_files/Bladed_out_binary_case2.$23
weio/tests/example_files/Bladed_out_binary_case2.$25
weio/tests/example_files/Bladed_out_binary_case2.$31
weio/tests/example_files/Bladed_out_binary_case2.$37
weio/tests/example_files/Bladed_out_binary_case2.$46
weio/tests/example_files/Bladed_out_binary_case2.$55
weio/tests/example_files/Bladed_out_binary_case2.$69
weio/tests/example_files/Bladed_out_binary_case2.$PJ
weio/tests/example_files/Bladed_out_binary_case2.%04
weio/tests/example_files/Bladed_out_binary_case2.%06
weio/tests/example_files/Bladed_out_binary_case2.%09
weio/tests/example_files/Bladed_out_binary_case2.%12
weio/tests/example_files/Bladed_out_binary_case2.%23
weio/tests/example_files/Bladed_out_binary_case2.%25
weio/tests/example_files/Bladed_out_binary_case2.%31
weio/tests/example_files/Bladed_out_binary_case2.%37
weio/tests/example_files/Bladed_out_binary_case2.%46
weio/tests/example_files/Bladed_out_binary_case2.%55
weio/tests/example_files/Bladed_out_binary_case2.%69
weio/tests/example_files/Bladed_out_binary_case2_fail.$55
weio/tests/example_files/Bladed_out_binary_case2_fail.%55
weio/tests/example_files/CSVAutoCommentChar.txt
weio/tests/example_files/CSVColInHeader.csv
weio/tests/example_files/CSVColInHeader2.csv
weio/tests/example_files/CSVColInHeader3.csv
weio/tests/example_files/CSVComma.csv
weio/tests/example_files/CSVComma_UTF16.csv
weio/tests/example_files/CSVDateNaN.csv
weio/tests/example_files/CSVNoHeader.csv
weio/tests/example_files/CSVSemi.csv
weio/tests/example_files/CSVSpace_ExtraCol.csv
weio/tests/example_files/CSVTab.csv
weio/tests/example_files/CSVTwoLinesHeaders.txt
weio/tests/example_files/CSVxIsString.csv
weio/tests/example_files/ExcelFile_OneSheet.xlsx
weio/tests/example_files/FASTIn_AD14.dat
weio/tests/example_files/FASTIn_AD14_arf.dat
weio/tests/example_files/FASTIn_AD14_arf_3col.dat
weio/tests/example_files/FASTIn_AD14_arf_Re.dat
weio/tests/example_files/FASTIn_AD15.dat
weio/tests/example_files/FASTIn_AD15_arf_multitabs.dat
weio/tests/example_files/FASTIn_AD15_arfl.dat
weio/tests/example_files/FASTIn_AD15_arfl0.dat
weio/tests/example_files/FASTIn_AD15_bld.dat
weio/tests/example_files/FASTIn_AD15_latin.dat
weio/tests/example_files/FASTIn_AD_F7.dat
weio/tests/example_files/FASTIn_AD_twr.dat
weio/tests/example_files/FASTIn_BD.dat
weio/tests/example_files/FASTIn_BD_bld.dat
weio/tests/example_files/FASTIn_BD_bld_2.dat
weio/tests/example_files/FASTIn_Blade.dat
weio/tests/example_files/FASTIn_ED.dat
weio/tests/example_files/FASTIn_ED_bld.dat
weio/tests/example_files/FASTIn_ED_bld_F7.dat
weio/tests/example_files/FASTIn_ED_twr.dat
weio/tests/example_files/FASTIn_ED_twr_F7.dat
weio/tests/example_files/FASTIn_ExtPtfm_SubSef.dat
weio/tests/example_files/FASTIn_HD.dat
weio/tests/example_files/FASTIn_IF_NoHead.dat
weio/tests/example_files/FASTIn_MD.dat
weio/tests/example_files/FASTIn_SD.dat
weio/tests/example_files/FASTIn_SbD.dat
weio/tests/example_files/FASTIn_SbD_comments.dat
weio/tests/example_files/FASTIn_TurbSim.dat
weio/tests/example_files/FASTIn_arf_coords.txt
weio/tests/example_files/FASTLin.lin
weio/tests/example_files/FASTLin_EDM.lin
weio/tests/example_files/FASTOut.out
weio/tests/example_files/FASTOutBin.outb
weio/tests/example_files/FASTOutBin_ID4.outb
weio/tests/example_files/FASTOut_HD.elev
weio/tests/example_files/FASTOut_Hydro.out
weio/tests/example_files/FASTSum_Pendulum.SD.sum.yaml
weio/tests/example_files/FASTWnd.wnd
weio/tests/example_files/FLEXBlade000.bla
weio/tests/example_files/FLEXBlade001.bld
weio/tests/example_files/FLEXBlade002.bld
weio/tests/example_files/FLEXBlade003.bld
weio/tests/example_files/FLEXDocFile.out
weio/tests/example_files/FLEXOutBinV0.int
weio/tests/example_files/FLEXOutBinV3.res
weio/tests/example_files/FLEXProfile.pro
weio/tests/example_files/FLEXWaveKin.wko
weio/tests/example_files/FastOut_V7.elm
weio/tests/example_files/HAWC2_ae.dat
weio/tests/example_files/HAWC2_out_ascii.dat
weio/tests/example_files/HAWC2_out_ascii.sel
weio/tests/example_files/HAWC2_out_bin.dat
weio/tests/example_files/HAWC2_out_bin.sel
weio/tests/example_files/HAWC2_pc.dat
weio/tests/example_files/HAWC2_st.dat
weio/tests/example_files/HAWC2_st.st
weio/tests/example_files/HAWC2_st_fpm.st
weio/tests/example_files/HAWCStab2.pwr
weio/tests/example_files/HAWCStab2_defl_u3000.ind
weio/tests/example_files/HAWCStab2_fext_u3000.ind
weio/tests/example_files/HAWCStab2_u3000.ind
weio/tests/example_files/ParquetFile_test.parquet
weio/tests/example_files/RoscoPerformance_CpCtCq.txt
weio/tests/example_files/TecplotASCII_1.dat
weio/tests/example_files/TecplotASCII_2.dat
weio/tests/example_files/TurbSimTS.txt
weio/tests/example_files/TurbSim_FAST.bts
weio/tests/example_files/TurbSim_NoTwr.bts
weio/tests/example_files/TurbSim_WithTwr.bts
weio/tests/example_files/VTKStructuredPointsPointData.vtk
weio/tests/example_files/input_decks/Elliptic_AD15_40.dat
weio/tests/example_files/input_decks/Elliptic_AD15_blade_40_cos.dat
weio/tests/example_files/input_decks/Elliptic_IW.dat
weio/tests/example_files/input_decks/Elliptic_OLAF.dat
weio/tests/example_files/input_decks/Elliptic_Wind.wnd
weio/tests/example_files/input_decks/Main_EllipticalWingInf_OLAF.dvr
weio/tests/example_files/input_decks/Polar2PiAlpha_AD15.dat
weio/tools/__init__.py
weio/tools/graph.py
weio/wetb/__init__.py
weio/wetb/hawc2/Hawc2io.py
weio/wetb/hawc2/__init__.py
weio/wetb/hawc2/ae_file.py
weio/wetb/hawc2/htc_contents.py
weio/wetb/hawc2/htc_extensions.py
weio/wetb/hawc2/htc_file.py
weio/wetb/hawc2/htc_file_set.py
weio/wetb/hawc2/pc_file.py
weio/wetb/hawc2/st_file.py