Metadata-Version: 2.1
Name: modflow-export
Version: 0.2.0
Summary: Fast & easy export of MODFLOW data to GIS file formats
Home-page: https://github.com/aleaf/modflow-export
Author: Andrew Leaf
Author-email: aleaf@usgs.gov
License: BSD (3-clause)
Platform: UNKNOWN
Classifier: Development Status :: 2 - Pre-Alpha
Classifier: Natural Language :: English
Classifier: Programming Language :: Python :: 3
Requires-Python: >=3.6
License-File: LICENSE
License-File: AUTHORS.rst
Requires-Dist: pyyaml
Requires-Dist: numpy
Requires-Dist: pandas
Requires-Dist: xarray
Requires-Dist: gdal
Requires-Dist: fiona
Requires-Dist: rasterio
Requires-Dist: shapely
Requires-Dist: pyproj
Requires-Dist: flopy
Requires-Dist: gis-utils


modflow-export
-----------------------------------------------
Fast & easy summarizing of MODFLOW data and export to GIS file formats.

### Version 0.2
![Tests](https://github.com/aleaf/modflow-export/workflows/Tests/badge.svg)
[![codecov](https://codecov.io/gh/aleaf/modflow-export/branch/master/graph/badge.svg)](https://codecov.io/gh/aleaf/modflow-export)
[![PyPI version](https://badge.fury.io/py/modflow-export.svg)](https://badge.fury.io/py/modflow-export)


Getting Started
----------------------------------------------- 
See the [Modflow-export documentation](https://aleaf.github.io/modflow-export/index.html)


Installation
-----------------------------------------------
See the [Installation Instructions](https://aleaf.github.io/modflow-export/latest/installation.html)


MODFLOW Resources
-----------------------------------------------

+ [MODFLOW Online Guide](https://water.usgs.gov/ogw/modflow-nwt/MODFLOW-NWT-Guide/index.html?nwt_newton_solver.htm)
+ [MODFLOW 6](https://www.usgs.gov/software/modflow-6-usgs-modular-hydrologic-model)
+ [Modflow-setup](https://github.com/usgs/modflow-setup)
+ [SFRmaker](https://github.com/usgs/sfrmaker)



Disclaimer
----------

This software is preliminary or provisional and is subject to revision. It is
being provided to meet the need for timely best science. The software has not
received final approval by the U.S. Geological Survey (USGS). No warranty,
expressed or implied, is made by the USGS or the U.S. Government as to the
functionality of the software and related material nor shall the fact of release
constitute any such warranty. The software is provided on the condition that
neither the USGS nor the U.S. Government shall be held liable for any damages
resulting from the authorized or unauthorized use of the software.



